
     RDKit          3D

  0  0  0  0  0  0  0  0  0  0999 V3000
M  V30 BEGIN CTAB
M  V30 COUNTS 82 89 0 0 0
M  V30 BEGIN ATOM
M  V30 1 C -16.3004 0.4515 0.0906 0
M  V30 2 C -15.6614 0.2962 -1.1286 0
M  V30 3 C -14.2803 0.2252 -1.2379 0
M  V30 4 C -13.5175 0.3121 -0.0953 0
M  V30 5 C -14.1332 0.4667 1.1271 0
M  V30 6 C -15.5220 0.5366 1.2236 0
M  V30 7 C -12.0645 0.2453 -0.1347 0
M  V30 8 C -11.2839 0.9183 0.7818 0
M  V30 9 C -9.9161 0.8433 0.7300 0
M  V30 10 C -9.3001 0.0766 -0.2614 0
M  V30 11 C -10.0472 -0.6084 -1.1922 0
M  V30 12 C -11.4139 -0.5013 -1.0983 0
M  V30 13 C -7.8438 0.0285 -0.2736 0
M  V30 14 C -7.1312 0.1141 0.9104 0
M  V30 15 C -5.7414 0.0729 0.9465 0
M  V30 16 C -5.0296 -0.0572 -0.2243 0
M  V30 17 C -5.7205 -0.1441 -1.4133 0
M  V30 18 C -7.1192 -0.1016 -1.4380 0
M  V30 19 C -3.5694 -0.1011 -0.2149 0
M  V30 20 C -2.8621 -0.8160 -1.1502 0
M  V30 21 C -1.4733 -0.8411 -1.1196 0
M  V30 22 C -0.7480 -0.1610 -0.1651 0
M  V30 23 C -1.4620 0.5564 0.7732 0
M  V30 24 C -2.8411 0.5929 0.7586 0
M  V30 25 C 0.7098 -0.1603 -0.0970 0
M  V30 26 C 1.4812 -0.2554 -1.2396 0
M  V30 27 C 2.8618 -0.2537 -1.1838 0
M  V30 28 C 3.5344 -0.1571 0.0153 0
M  V30 29 C 2.7772 -0.0618 1.1633 0
M  V30 30 C 1.3930 -0.0641 1.0997 0
M  V30 31 C 4.9904 -0.1519 0.0942 0
M  V30 32 C 5.7267 0.3998 -0.9361 0
M  V30 33 C 7.1039 0.4107 -0.8708 0
M  V30 34 C 7.8017 -0.1162 0.2013 0
M  V30 35 C 7.0500 -0.6622 1.2197 0
M  V30 36 C 5.6504 -0.6759 1.1583 0
M  V30 37 C 9.2641 -0.0980 0.2543 0
M  V30 38 C 9.9838 -0.1892 -0.9201 0
M  V30 39 C 11.3618 -0.1755 -0.9135 0
M  V30 40 C 12.0933 -0.0707 0.2572 0
M  V30 41 C 11.3734 0.0203 1.4301 0
M  V30 42 C 9.9854 0.0066 1.4234 0
M  V30 43 C 13.5536 -0.0565 0.2566 0
M  V30 44 C 14.3217 0.6187 1.1797 0
M  V30 45 C 15.6873 0.6272 1.1701 0
M  V30 46 C 16.3582 -0.0801 0.1800 0
M  V30 47 C 15.6141 -0.7709 -0.7651 0
M  V30 48 C 14.2359 -0.7536 -0.7195 0
M  V30 49 H -17.3758 0.4988 0.1003 0
M  V30 50 H -16.2396 0.2247 -2.0484 0
M  V30 51 H -13.8040 0.1037 -2.2029 0
M  V30 52 H -13.5892 0.5402 2.0521 0
M  V30 53 H -16.0286 0.6567 2.1661 0
M  V30 54 H -11.7657 1.5053 1.5395 0
M  V30 55 H -9.3151 1.3863 1.4681 0
M  V30 56 H -9.5284 -1.1889 -1.9414 0
M  V30 57 H -12.0166 -1.0415 -1.8331 0
M  V30 58 H -7.6593 0.2173 1.8526 0
M  V30 59 H -5.1821 0.1386 1.8581 0
M  V30 60 H -5.1762 -0.2466 -2.3329 0
M  V30 61 H -7.6662 -0.1701 -2.3778 0
M  V30 62 H -3.4141 -1.3643 -1.9190 0
M  V30 63 H -0.9278 -1.4064 -1.8588 0
M  V30 64 H -0.9017 1.0987 1.5325 0
M  V30 65 H -3.3769 1.1567 1.4970 0
M  V30 66 H 0.9524 -0.3323 -2.1915 0
M  V30 67 H 3.4700 -0.3275 -2.0758 0
M  V30 68 H 3.2939 0.0152 2.1181 0
M  V30 69 H 0.7837 0.0104 1.9938 0
M  V30 70 H 5.2019 0.8136 -1.7784 0
M  V30 71 H 7.7083 0.8383 -1.6654 0
M  V30 72 H 7.5658 -1.0826 2.0719 0
M  V30 73 H 5.0748 -1.1090 1.9676 0
M  V30 74 H 9.4347 -0.2726 -1.8519 0
M  V30 75 H 11.9149 -0.2492 -1.8514 0
M  V30 76 H 11.9272 0.1055 2.3785 0
M  V30 77 H 9.4334 0.0779 2.3497 0
M  V30 78 H 13.7664 1.1719 1.9544 0
M  V30 79 H 16.2696 1.1778 1.9241 0
M  V30 80 H 17.4219 -0.0795 0.1641 0
M  V30 81 H 16.1687 -1.3085 -1.5192 0
M  V30 82 H 13.6485 -1.2940 -1.4576 0
M  V30 END ATOM
M  V30 BEGIN BOND
M  V30 0 2 1 2
M  V30 1 1 2 3
M  V30 2 2 3 4
M  V30 3 1 4 5
M  V30 4 2 5 6
M  V30 5 1 6 1
M  V30 6 2 7 8
M  V30 7 1 8 9
M  V30 8 2 9 10
M  V30 9 1 10 11
M  V30 10 2 11 12
M  V30 11 1 12 7
M  V30 12 2 13 14
M  V30 13 1 14 15
M  V30 14 2 15 16
M  V30 15 1 16 17
M  V30 16 2 17 18
M  V30 17 1 18 13
M  V30 18 2 19 20
M  V30 19 1 20 21
M  V30 20 2 21 22
M  V30 21 1 22 23
M  V30 22 2 23 24
M  V30 23 1 24 19
M  V30 24 2 25 26
M  V30 25 1 26 27
M  V30 26 2 27 28
M  V30 27 1 28 29
M  V30 28 2 29 30
M  V30 29 1 30 25
M  V30 30 2 31 32
M  V30 31 1 32 33
M  V30 32 2 33 34
M  V30 33 1 34 35
M  V30 34 2 35 36
M  V30 35 1 36 31
M  V30 36 2 37 38
M  V30 37 1 38 39
M  V30 38 2 39 40
M  V30 39 1 40 41
M  V30 40 2 41 42
M  V30 41 1 42 37
M  V30 42 2 43 44
M  V30 43 1 44 45
M  V30 44 2 45 46
M  V30 45 1 46 47
M  V30 46 2 47 48
M  V30 47 1 48 43
M  V30 48 1 4 7
M  V30 49 1 10 13
M  V30 50 1 16 19
M  V30 51 1 22 25
M  V30 52 1 28 31
M  V30 53 1 34 37
M  V30 54 1 40 43
M  V30 55 1 1 49
M  V30 56 1 2 50
M  V30 57 1 3 51
M  V30 58 1 5 52
M  V30 59 1 6 53
M  V30 60 1 8 54
M  V30 61 1 9 55
M  V30 62 1 11 56
M  V30 63 1 12 57
M  V30 64 1 14 58
M  V30 65 1 15 59
M  V30 66 1 17 60
M  V30 67 1 18 61
M  V30 68 1 20 62
M  V30 69 1 21 63
M  V30 70 1 23 64
M  V30 71 1 24 65
M  V30 72 1 26 66
M  V30 73 1 27 67
M  V30 74 1 29 68
M  V30 75 1 30 69
M  V30 76 1 32 70
M  V30 77 1 33 71
M  V30 78 1 35 72
M  V30 79 1 36 73
M  V30 80 1 38 74
M  V30 81 1 39 75
M  V30 82 1 41 76
M  V30 83 1 42 77
M  V30 84 1 44 78
M  V30 85 1 45 79
M  V30 86 1 46 80
M  V30 87 1 47 81
M  V30 88 1 48 82
M  V30 END BOND
M  V30 END CTAB
M  END

$$$$
