
     RDKit          3D

 66 73  0  0  0  0  0  0  0  0999 V2000
   16.1086    0.1340    0.2310 C   0  0  0  0  0  0  0  0  0  0  0  0
   15.4347    0.2147   -0.9681 C   0  0  0  0  0  0  0  0  0  0  0  0
   14.0911    0.2031   -1.0011 N   0  0  0  0  0  0  0  0  0  0  0  0
   13.3535    0.1140    0.1120 C   0  0  0  0  0  0  0  0  0  0  0  0
   14.0486    0.0329    1.3198 C   0  0  0  0  0  0  0  0  0  0  0  0
   15.3927    0.0442    1.3566 N   0  0  0  0  0  0  0  0  0  0  0  0
   11.9028    0.0992    0.1091 C   0  0  0  0  0  0  0  0  0  0  0  0
   11.2342    0.1805   -1.0927 C   0  0  0  0  0  0  0  0  0  0  0  0
    9.8689    0.1660   -1.0861 N   0  0  0  0  0  0  0  0  0  0  0  0
    9.1593    0.0753    0.0509 C   0  0  0  0  0  0  0  0  0  0  0  0
    9.8400   -0.0047    1.2367 C   0  0  0  0  0  0  0  0  0  0  0  0
   11.1860    0.0088    1.2411 N   0  0  0  0  0  0  0  0  0  0  0  0
    7.6990    0.0649   -0.0086 C   0  0  0  0  0  0  0  0  0  0  0  0
    7.0384    0.1470   -1.2116 C   0  0  0  0  0  0  0  0  0  0  0  0
    5.6945    0.1380   -1.2683 N   0  0  0  0  0  0  0  0  0  0  0  0
    4.9600    0.0486   -0.1522 C   0  0  0  0  0  0  0  0  0  0  0  0
    5.6237   -0.0332    1.0468 C   0  0  0  0  0  0  0  0  0  0  0  0
    6.9722   -0.0254    1.1208 N   0  0  0  0  0  0  0  0  0  0  0  0
    3.5052    0.0336   -0.1365 C   0  0  0  0  0  0  0  0  0  0  0  0
    2.7865    0.1142   -1.3124 C   0  0  0  0  0  0  0  0  0  0  0  0
    1.4312    0.1010   -1.3011 N   0  0  0  0  0  0  0  0  0  0  0  0
    0.7456    0.0106   -0.1671 C   0  0  0  0  0  0  0  0  0  0  0  0
    1.4494   -0.0708    1.0176 C   0  0  0  0  0  0  0  0  0  0  0  0
    2.7953   -0.0571    0.9995 N   0  0  0  0  0  0  0  0  0  0  0  0
   -0.7236   -0.0030   -0.1580 C   0  0  0  0  0  0  0  0  0  0  0  0
   -1.4316    0.0780   -1.3259 C   0  0  0  0  0  0  0  0  0  0  0  0
   -2.7952    0.0692   -1.3648 N   0  0  0  0  0  0  0  0  0  0  0  0
   -3.4664   -0.0230   -0.2060 C   0  0  0  0  0  0  0  0  0  0  0  0
   -2.7588   -0.1049    0.9735 C   0  0  0  0  0  0  0  0  0  0  0  0
   -1.3958   -0.0946    0.9936 N   0  0  0  0  0  0  0  0  0  0  0  0
   -4.9357   -0.0388   -0.1622 C   0  0  0  0  0  0  0  0  0  0  0  0
   -5.6760    0.0415   -1.3232 C   0  0  0  0  0  0  0  0  0  0  0  0
   -7.0235    0.0286   -1.3053 N   0  0  0  0  0  0  0  0  0  0  0  0
   -7.6928   -0.0625   -0.1619 C   0  0  0  0  0  0  0  0  0  0  0  0
   -6.9552   -0.1432    1.0036 C   0  0  0  0  0  0  0  0  0  0  0  0
   -5.6110   -0.1303    0.9861 N   0  0  0  0  0  0  0  0  0  0  0  0
   -9.1628   -0.0791   -0.1087 C   0  0  0  0  0  0  0  0  0  0  0  0
   -9.9171    0.0005   -1.2579 C   0  0  0  0  0  0  0  0  0  0  0  0
  -11.2756   -0.0151   -1.2016 N   0  0  0  0  0  0  0  0  0  0  0  0
  -11.9276   -0.1084   -0.0302 C   0  0  0  0  0  0  0  0  0  0  0  0
  -11.1692   -0.1880    1.1181 C   0  0  0  0  0  0  0  0  0  0  0  0
   -9.8163   -0.1723    1.0613 N   0  0  0  0  0  0  0  0  0  0  0  0
  -13.3934   -0.1241    0.0085 C   0  0  0  0  0  0  0  0  0  0  0  0
  -14.0898   -0.0418   -1.1786 C   0  0  0  0  0  0  0  0  0  0  0  0
  -15.4327   -0.0482   -1.2554 N   0  0  0  0  0  0  0  0  0  0  0  0
  -16.1043   -0.1409   -0.0936 C   0  0  0  0  0  0  0  0  0  0  0  0
  -15.4374   -0.2249    1.1139 C   0  0  0  0  0  0  0  0  0  0  0  0
  -14.0908   -0.2141    1.1314 N   0  0  0  0  0  0  0  0  0  0  0  0
   17.2075    0.1434    0.2602 H   0  0  0  0  0  0  0  0  0  0  0  0
   16.0437    0.2872   -1.8728 H   0  0  0  0  0  0  0  0  0  0  0  0
   13.4613   -0.0405    2.2388 H   0  0  0  0  0  0  0  0  0  0  0  0
   11.7177    0.2559   -2.0524 H   0  0  0  0  0  0  0  0  0  0  0  0
    9.2851   -0.0787    2.1667 H   0  0  0  0  0  0  0  0  0  0  0  0
    7.6555    0.2191   -2.1073 H   0  0  0  0  0  0  0  0  0  0  0  0
    5.0538   -0.1053    1.9504 H   0  0  0  0  0  0  0  0  0  0  0  0
    3.2584    0.1905   -2.2826 H   0  0  0  0  0  0  0  0  0  0  0  0
    0.9021   -0.1452    1.9523 H   0  0  0  0  0  0  0  0  0  0  0  0
   -0.8724    0.1519   -2.2531 H   0  0  0  0  0  0  0  0  0  0  0  0
   -3.3386   -0.1786    1.8958 H   0  0  0  0  0  0  0  0  0  0  0  0
   -5.1128    0.1158   -2.2544 H   0  0  0  0  0  0  0  0  0  0  0  0
   -7.4945   -0.2184    1.9499 H   0  0  0  0  0  0  0  0  0  0  0  0
   -9.3797    0.0756   -2.1992 H   0  0  0  0  0  0  0  0  0  0  0  0
  -11.6596   -0.2641    2.0780 H   0  0  0  0  0  0  0  0  0  0  0  0
  -13.5497    0.0336   -2.1259 H   0  0  0  0  0  0  0  0  0  0  0  0
  -17.1841   -0.1454   -0.1637 H   0  0  0  0  0  0  0  0  0  0  0  0
  -16.0325   -0.2975    2.0173 H   0  0  0  0  0  0  0  0  0  0  0  0
  1  2  2  0
  2  3  1  0
  3  4  2  0
  4  5  1  0
  5  6  2  0
  6  1  1  0
  7  8  2  0
  8  9  1  0
  9 10  2  0
 10 11  1  0
 11 12  2  0
 12  7  1  0
 13 14  2  0
 14 15  1  0
 15 16  2  0
 16 17  1  0
 17 18  2  0
 18 13  1  0
 19 20  2  0
 20 21  1  0
 21 22  2  0
 22 23  1  0
 23 24  2  0
 24 19  1  0
 25 26  2  0
 26 27  1  0
 27 28  2  0
 28 29  1  0
 29 30  2  0
 30 25  1  0
 31 32  2  0
 32 33  1  0
 33 34  2  0
 34 35  1  0
 35 36  2  0
 36 31  1  0
 37 38  2  0
 38 39  1  0
 39 40  2  0
 40 41  1  0
 41 42  2  0
 42 37  1  0
 43 44  2  0
 44 45  1  0
 45 46  2  0
 46 47  1  0
 47 48  2  0
 48 43  1  0
  4  7  1  0
 10 13  1  0
 16 19  1  0
 22 25  1  0
 28 31  1  0
 34 37  1  0
 40 43  1  0
  1 49  1  0
  2 50  1  0
  5 51  1  0
  8 52  1  0
 11 53  1  0
 14 54  1  0
 17 55  1  0
 20 56  1  0
 23 57  1  0
 26 58  1  0
 29 59  1  0
 32 60  1  0
 35 61  1  0
 38 62  1  0
 41 63  1  0
 44 64  1  0
 46 65  1  0
 47 66  1  0
M  END
